** Cleaned model 6
** Will be further as a template 
*Heading
** Job name: Mask Model name: Model-0
** Generated by: Abaqus/CAE 6.14-1
*Preprint, echo=NO, model=NO, history=NO, contact=NO
**
** PARTS
**
*Part, name=JV-Copy
*Node
      1,   100.196556,   125.723808,   1039.00244
      2,   10.8918266,   131.793671,   1038.63184
      3,   10.4699745,    131.98558,    1047.6416
      4,   39.6528358,   186.222076,    1348.5697
      5,   100.721252,   125.896973,   1048.17371
      6,   125.079247,   185.907623,   1337.11597
      7,    152.95253,           0.,   1448.16846
      8,   137.240402,           0.,   1479.08435
      9,  -1.84075987,           0.,   1457.01135
     10,  -53.8135223,           0.,   1377.92432
     11,   10.8917913,  -131.793289,   1038.62427
     12,   100.196342,  -125.723824,   1038.99805
     13,   100.721504,  -125.897057,   1048.17822
     14,   125.079247,  -185.907623,   1337.11597
     15,   10.4698582,  -131.985641,   1047.64404
     16,   39.6528358,  -186.222076,    1348.5697
     17,  -50.5776176,   80.2885666,   1026.18372
     18,  -77.1156082, 0.00466496916,   1016.08447
     19,   132.493744, 0.00575261051,   1027.21753
     20,   132.000412, 0.00693050306,   1020.00568
** ... 1233 like lines cut
*Element, type=S3
  1,   1,  38, 335
  2, 335,   5,   1
  3,  38,  39, 336
  4, 336, 335,  38
  5,  39,  40, 337
  6, 337, 336,  39
  7,  40,  41, 338
  8, 338, 337,  40
  9,  41,   2,   3
 10,   3, 338,  41
 11,   5, 335, 339
 12, 339,  75,   5
 13, 335, 336, 340
 14, 340, 339, 335
 15, 336, 337, 341
 16, 341, 340, 336
 17, 337, 338, 342
 18, 342, 341, 337
 19, 338,   3,  42
 20,  42, 342, 338
** ... 2372 like lines cut
*End Part
**  
**
** ASSEMBLY
**
*Assembly, name=Assembly
**  
*Instance, name=JV-Copy-1, part=JV-Copy
78.0000000000001,  -997.467563,   164.826804
78.0000000000001,  -997.467563,   164.826804, 78.5773502795521, -996.890212720448, 165.404154279552, 240.000000890584
*End Instance
**  
*Node
      1,         231.,         440.,         171.
*Node
      2,         197.,         431.,         164.
*Node
      3,         156.,         425.,         140.
*Node
      4,          78.,         420.,         137.
*Node
      5,          23.,         426.,         138.
*Node
      6,         -21.,         434.,         162.
*Node
      7,         -66.,         441.,         172.
*Node
      8,         225.,         381.,         136.
*Node
      9,         172.,         369.,         112.
*Node
     10,          80.,         357.,         117.
*Node
     11,           6.,         364.,         111.
*Node
     12,         -61.,         366.,         130.
*Node
     13,         196.,         331.,          96.
*Node
     14,         -30.,         319.,          95.
*Node
     15,         221.,         296.,         104.
*Node
     16,         171.,         295.,          81.
*Node
     17,          78.,         283.,          98.
*Node
     18,           4.,         287.,          81.
*Node
     19,         -51.,         282.,         102.
*Node
     20,         197.,         230.,         122.
*Node
     21,         154.,         230.,          93.
*Node
     22,          79.,         234.,          89.
*Node
     23,          10.,         216.,          95.
*Node
     24,         -34.,         220.,         125.
*Node
     25,         153.,         154.,          88.
*Node
     26,          81.,         178.,          75.
*Node
     27,          16.,         146.,          87.
*Node
     28,         184.,         115.,         102.
*Node
     29,         126.,          98.,          78.
*Node
     30,          81.,         131.,          72.
*Node
     31,          36.,          95.,          79.
*Node
     32,         -23.,         111.,         112.
*Node
     33,         194.,          52.,         109.
*Node
     34,         152.,          50.,          90.
*Node
     35,          82.,          51.,          80.
*Node
     36,          13.,          56.,          93.
*Node
     37,         -33.,          57.,         123.
*Node
     38,         196.,          -6.,         112.
*Node
     39,         153.,          -7.,          92.
*Node
     40,          83.,          -7.,          78.
*Node
     41,          18.,          -6.,          97.
*Node
     42,         -29.,           0.,         123.
*Node
     43,         -82.,         452.,         265.
*Node
     44,           2.,         463.,         298.
*Node
     45,          87.,         462.,         295.
*Node
     46,         165.,         469.,         298.
*Node
     47,         237.,         457.,         277.
*Node
     48,         -80.,         340.,         310.
*Node
     49,          -5.,         349.,         326.
*Node
     50,          83.,         346.,         311.
*Node
     51,         163.,         359.,         330.
*Node
     52,         236.,         352.,         312.
*Node
     53,         -45.,         313.,         321.
*Node
     54,         197.,         325.,         326.
*Node
     55,         -65.,         277.,         309.
*Node
     56,         -21.,         278.,         319.
*Node
     57,          30.,         279.,         322.
*Node
     58,          82.,         275.,         307.
*Node
     59,         133.,         281.,         322.
*Node
     60,         179.,         281.,         321.
*Node
     61,         231.,         282.,         309.
*Node
     62,         -55.,         230.,         298.
*Node
     63,         -21.,         234.,         312.
*Node
     64,          33.,         229.,         310.
*Node
     65,          82.,         229.,         292.
*Node
     66,         135.,         231.,         308.
*Node
     67,         176.,         227.,         308.
*Node
     68,         215.,         221.,         297.
*Node
     69,         -38.,         172.,         280.
*Node
     70,          -9.,         179.,         291.
*Node
     71,          35.,         184.,         301.
*Node
     72,          80.,         180.,         278.
*Node
     73,         130.,         185.,         299.
*Node
     74,         173.,         178.,         286.
*Node
     75,         204.,         176.,         276.
*Node
     76,         -29.,         131.,         271.
*Node
     77,          -3.,         137.,         284.
*Node
     78,          38.,         142.,         294.
*Node
     79,          78.,         130.,         272.
*Node
     80,         130.,         138.,         289.
*Node
     81,         163.,         131.,         280.
*Node
     82,         197.,         131.,         262.
*Node
     83,         -30.,          99.,         276.
*Node
     84,          -1.,          92.,         284.
*Node
     85,          35.,          91.,         289.
*Node
     86,          83.,          83.,         276.
*Node
     87,         129.,          91.,         284.
*Node
     88,         170.,          88.,         278.
*Node
     89,         201.,          93.,         269.
*End Assembly
** 
** MATERIALS
** 
*Material, name=Material-1
*Density
1.,
*Elastic
 7e+07, 0.31
** 
** INTERACTION PROPERTIES
** 
*Surface Interaction, name=IntProp-1
1.,
*Friction, slip tolerance=0.005
 0.75,
** 
** INTERACTIONS
** 
** Interaction: Int-1
*Contact
*Contact Inclusions, ALL EXTERIOR
*Contact Property Assignment
 ,  , IntProp-1
** ----------------------------------------------------------------
** 
** STEP: Step-2
** 
*Step, name=Step-2, nlgeom=YES, unsymm=YES
*Static, stabilize=0.0002, allsdtol=0.05, continue=NO
0.5, 1., 1e-05, 1.
** 
** OUTPUT REQUESTS
** 
*Restart, write, frequency=0
*Output, field, frequency=0
*Output, history, frequency=0
*End Step
** ----------------------------------------------------------------
** 
** STEP: Step-1
** 
*Step, name=Step-1, nlgeom=YES
*Static, stabilize=0.0002, allsdtol=0.05, continue=NO
0.2, 1., 1e-07, 1.
** 
** OUTPUT REQUESTS
** 
*Restart, write, frequency=0
** 
** FIELD OUTPUT: F-Output-1
** 
*Output, field, variable=PRESELECT
** 
** HISTORY OUTPUT: H-Output-1
** 
*Output, history, variable=PRESELECT
*End Step
